@<TRIPOS>MOLECULE
*****
 17 16 0 0 0
SMALL
GASTEIGER

@<TRIPOS>ATOM
      1 C          -3.1964   -2.3997   -0.0800 C.2     1  UNL1        0.3049
      2 C          -3.3798   -0.9671   -0.5311 C.3     1  UNL1        0.0471
      3 C          -2.4930    0.0885    0.1526 C.3     1  UNL1       -0.0367
      4 H          -4.4286   -0.7274   -0.3047 H       1  UNL1        0.0380
      5 H          -3.2890   -0.9284   -1.6223 H       1  UNL1        0.0380
      6 C          -3.0905    1.4790   -0.0989 C.3     1  UNL1       -0.0622
      7 H          -3.2591    1.6498   -1.1679 H       1  UNL1        0.0232
      8 H          -2.4302    2.2710    0.2703 H       1  UNL1        0.0232
      9 H          -4.0506    1.5847    0.4172 H       1  UNL1        0.0232
     10 C          -1.0427    0.0684   -0.3397 C.3     1  UNL1       -0.0622
     11 H          -2.4849   -0.0844    1.2363 H       1  UNL1        0.0301
     12 H          -0.5386    1.0231   -0.1547 H       1  UNL1        0.0232
     13 H          -0.9835   -0.1375   -1.4136 H       1  UNL1        0.0232
     14 H          -0.4657   -0.6953    0.1918 H       1  UNL1        0.0232
     15 O          -1.9724   -2.9165   -0.3105 O.3     1  UNL1       -0.4806
     16 H          -1.3583   -2.3216   -0.7734 H       1  UNL1        0.2951
     17 O          -4.0995   -3.0752    0.3857 O.2     1  UNL1       -0.2510
@<TRIPOS>BOND
     1     1     2    1
     2     2     3    1
     3     2     4    1
     4     2     5    1
     5     3     6    1
     6     6     7    1
     7     6     8    1
     8     6     9    1
     9     3    10    1
    10     3    11    1
    11    10    12    1
    12    10    13    1
    13    10    14    1
    14     1    15    1
    15    15    16    1
    16     1    17    2
