@<TRIPOS>MOLECULE
*****
 20 19 0 0 0
SMALL
GASTEIGER

@<TRIPOS>ATOM
      1 C          -3.4215   -5.7679   -0.1910 C.2     1  UNL1        0.3047
      2 C          -2.4594   -4.6044   -0.1195 C.3     1  UNL1        0.0448
      3 C          -3.1893   -3.2645   -0.2111 C.3     1  UNL1       -0.0425
      4 H          -1.7485   -4.6959   -0.9481 H       1  UNL1        0.0377
      5 H          -1.9159   -4.6665    0.8297 H       1  UNL1        0.0377
      6 C          -2.2168   -2.0876   -0.1477 C.3     1  UNL1       -0.0425
      7 H          -3.9166   -3.1853    0.6067 H       1  UNL1        0.0271
      8 H          -3.7613   -3.2199   -1.1464 H       1  UNL1        0.0271
      9 C          -2.9545   -0.7525   -0.2500 C.3     1  UNL1        0.0448
     10 H          -1.4848   -2.1675   -0.9612 H       1  UNL1        0.0271
     11 H          -1.6503   -2.1267    0.7911 H       1  UNL1        0.0271
     12 C          -2.0073    0.4214   -0.1622 C.2     1  UNL1        0.3047
     13 H          -3.6801   -0.6683    0.5666 H       1  UNL1        0.0377
     14 H          -3.4832   -0.6946   -1.2079 H       1  UNL1        0.0377
     15 O          -0.7952    0.3429   -0.0456 O.2     1  UNL1       -0.2510
     16 O          -2.6536    1.6084   -0.2293 O.3     1  UNL1       -0.4806
     17 H          -3.6217    1.5257   -0.3225 H       1  UNL1        0.2951
     18 O          -4.6338   -5.6751   -0.2967 O.2     1  UNL1       -0.2510
     19 O          -2.7901   -6.9626   -0.1236 O.3     1  UNL1       -0.4806
     20 H          -1.8202   -6.8923   -0.0401 H       1  UNL1        0.2951
@<TRIPOS>BOND
     1     1     2    1
     2     2     3    1
     3     2     4    1
     4     2     5    1
     5     3     6    1
     6     3     7    1
     7     3     8    1
     8     6     9    1
     9     6    10    1
    10     6    11    1
    11     9    12    1
    12     9    13    1
    13     9    14    1
    14    12    15    2
    15    12    16    1
    16    16    17    1
    17     1    18    2
    18     1    19    1
    19    19    20    1
