@<TRIPOS>MOLECULE
*****
 21 20 0 0 0
SMALL
GASTEIGER

@<TRIPOS>ATOM
      1 C          -4.7639    2.4268   -0.0482 C.2     1  UNL1        0.3116
      2 C          -3.2675    2.3416   -0.4054 C.3     1  UNL1        0.0742
      3 C          -2.3713    1.1375   -0.0335 C.2     1  UNL1       -0.0635
      4 C          -2.6899   -0.1682    0.1135 C.2     1  UNL1       -0.0874
      5 C          -3.9726   -0.9010   -0.0921 C.3     1  UNL1       -0.0466
      6 H          -4.5339   -0.9675    0.8443 H       1  UNL1        0.0272
      7 H          -3.7524   -1.9288   -0.4035 H       1  UNL1        0.0272
      8 H          -4.5822   -0.4592   -0.8835 H       1  UNL1        0.0272
      9 C          -2.7036    3.6894    0.1114 C.3     1  UNL1       -0.0485
     10 H          -3.2403    2.3784   -1.5038 H       1  UNL1        0.0456
     11 H          -1.6337    3.8210   -0.0670 H       1  UNL1        0.0241
     12 H          -2.8893    3.8093    1.1854 H       1  UNL1        0.0241
     13 H          -3.1905    4.5294   -0.3996 H       1  UNL1        0.0241
     14 C          -0.8830    1.4445    0.0508 C.3     1  UNL1       -0.0430
     15 H          -0.2621    0.5414    0.0718 H       1  UNL1        0.0275
     16 H          -0.6534    2.0169    0.9544 H       1  UNL1        0.0275
     17 H          -0.5630    2.0076   -0.8334 H       1  UNL1        0.0275
     18 H          -1.8847   -0.8566    0.3788 H       1  UNL1        0.0569
     19 O          -5.4829    3.3896   -0.3012 O.2     1  UNL1       -0.2504
     20 O          -5.3138    1.3917    0.5922 O.3     1  UNL1       -0.4802
     21 H          -6.2577    1.6435    0.6687 H       1  UNL1        0.2951
@<TRIPOS>BOND
     1     1     2    1
     2     2     3    1
     3     3     4    2
     4     4     5    1
     5     5     6    1
     6     5     7    1
     7     5     8    1
     8     2     9    1
     9     2    10    1
    10     9    11    1
    11     9    12    1
    12     9    13    1
    13     3    14    1
    14    14    15    1
    15    14    16    1
    16    14    17    1
    17     4    18    1
    18     1    19    2
    19     1    20    1
    20    20    21    1
