@<TRIPOS>MOLECULE
*****
 15 15 0 0 0
SMALL
GASTEIGER

@<TRIPOS>ATOM
      1 C           1.9220    1.0625   -0.0575 C.ar    1  UNL1       -0.0610
      2 C           0.6209    0.5560   -0.0272 C.ar    1  UNL1       -0.0478
      3 C          -0.4898    1.4163   -0.0543 C.ar    1  UNL1        0.0588
      4 C          -0.2674    2.7997   -0.1124 C.ar    1  UNL1       -0.0478
      5 C           1.0389    3.3034   -0.1425 C.ar    1  UNL1       -0.0610
      6 C           2.1298    2.4371   -0.1151 C.ar    1  UNL1       -0.0617
      7 H           2.7695    0.3816   -0.0358 H       1  UNL1        0.0618
      8 H           0.4767   -0.5232    0.0179 H       1  UNL1        0.0626
      9 C          -1.8398    0.7733   -0.0181 C.2     1  UNL1        0.3368
     10 H          -1.0712    3.5251   -0.1361 H       1  UNL1        0.0626
     11 H           1.2064    4.3775   -0.1876 H       1  UNL1        0.0618
     12 H           3.1422    2.8334   -0.1387 H       1  UNL1        0.0618
     13 O          -1.9782   -0.4395    0.0324 O.2     1  UNL1       -0.2451
     14 O          -2.9043    1.5997   -0.0441 O.3     1  UNL1       -0.4771
     15 H          -2.7327    2.5525   -0.0843 H       1  UNL1        0.2954
@<TRIPOS>BOND
     1     1     2   ar
     2     2     3   ar
     3     3     4   ar
     4     4     5   ar
     5     5     6   ar
     6     6     1   ar
     7     1     7    1
     8     2     8    1
     9     3     9    1
    10     4    10    1
    11     5    11    1
    12     6    12    1
    13     9    13    2
    14     9    14    1
    15    14    15    1
