@<TRIPOS>MOLECULE
*****
 26 25 0 0 0
SMALL
GASTEIGER

@<TRIPOS>ATOM
      1 C          -6.0972    3.0665    0.2117 C.2     1  UNL1        0.3049
      2 C          -4.6942    3.6130    0.0000 C.3     1  UNL1        0.0474
      3 C          -3.5045    2.6636    0.3190 C.3     1  UNL1       -0.0336
      4 H          -4.5978    4.5073    0.6289 H       1  UNL1        0.0380
      5 H          -4.6359    3.9274   -1.0502 H       1  UNL1        0.0380
      6 C          -2.1855    3.4460    0.0477 C.3     1  UNL1       -0.0476
      7 C          -0.8571    2.7462   -0.3361 C.3     1  UNL1       -0.0465
      8 H          -2.0049    4.0564    0.9450 H       1  UNL1        0.0270
      9 H          -2.3749    4.1812   -0.7481 H       1  UNL1        0.0270
     10 C           0.2894    3.7640   -0.1952 C.3     1  UNL1       -0.0627
     11 H           0.1290    4.6312   -0.8436 H       1  UNL1        0.0232
     12 H           1.2518    3.3186   -0.4709 H       1  UNL1        0.0232
     13 H           0.3719    4.1217    0.8379 H       1  UNL1        0.0232
     14 C          -0.4900    1.4834    0.4445 C.3     1  UNL1       -0.0627
     15 H          -0.9160    2.4764   -1.3991 H       1  UNL1        0.0296
     16 H           0.5924    1.3944    0.5915 H       1  UNL1        0.0232
     17 H          -0.7678    0.5889   -0.1228 H       1  UNL1        0.0232
     18 H          -0.9738    1.4434    1.4228 H       1  UNL1        0.0232
     19 C          -3.6560    1.3311   -0.4097 C.3     1  UNL1       -0.0619
     20 H          -3.5298    2.4452    1.3958 H       1  UNL1        0.0303
     21 H          -2.7472    0.7395   -0.4258 H       1  UNL1        0.0233
     22 H          -3.9956    1.4624   -1.4396 H       1  UNL1        0.0233
     23 H          -4.3826    0.7005    0.1148 H       1  UNL1        0.0233
     24 O          -6.3993    1.9110    0.4299 O.2     1  UNL1       -0.2510
     25 O          -7.0404    4.0353    0.0879 O.3     1  UNL1       -0.4806
     26 H          -6.6820    4.9224   -0.0990 H       1  UNL1        0.2951
@<TRIPOS>BOND
     1     1     2    1
     2     2     3    1
     3     2     4    1
     4     2     5    1
     5     3     6    1
     6     6     7    1
     7     6     8    1
     8     6     9    1
     9     7    10    1
    10    10    11    1
    11    10    12    1
    12    10    13    1
    13     7    14    1
    14     7    15    1
    15    14    16    1
    16    14    17    1
    17    14    18    1
    18     3    19    1
    19     3    20    1
    20    19    21    1
    21    19    22    1
    22    19    23    1
    23     1    24    2
    24     1    25    1
    25    25    26    1
