@<TRIPOS>MOLECULE
*****
 21 20 0 0 0
SMALL
GASTEIGER

@<TRIPOS>ATOM
      1 C          -7.6731    1.5232    0.0000 C.3     1  UNL1       -0.0533
      2 C          -4.8657    2.4406   -0.0000 C.3     1  UNL1       -0.0248
      3 C          -1.5760    0.6578    0.0000 C.3     1  UNL1        0.0605
      4 C           1.3176    2.0252   -0.0000 C.3     1  UNL1       -0.0363
      5 C          -2.6610   -2.2848    0.0000 C.3     1  UNL1       -0.0363
      6 H          -3.7309   -2.2704    0.0000 H       1  UNL1        0.0257
      7 H          -2.3112   -2.7940    0.8737 H       1  UNL1        0.0257
      8 H          -2.3112   -2.7940   -0.8736 H       1  UNL1        0.0257
      9 H           1.2090    3.0897   -0.0000 H       1  UNL1        0.0257
     10 H           1.8556    1.7215   -0.8737 H       1  UNL1        0.0257
     11 H           1.8556    1.7215    0.8736 H       1  UNL1        0.0257
     12 C          -9.6494   -0.5350   -0.3974 C.3     1  UNL1       -0.0652
     13 H          -8.0756    2.2558   -0.6680 H       1  UNL1        0.0264
     14 H          -7.5274    1.1568    0.9947 H       1  UNL1        0.0264
     15 H         -10.0474   -0.4609   -1.3878 H       1  UNL1        0.0230
     16 H         -10.4391   -0.4135    0.3144 H       1  UNL1        0.0230
     17 H          -9.1957   -1.4952   -0.2662 H       1  UNL1        0.0230
     18 H          -4.8099    3.0559    0.8737 H       1  UNL1        0.0293
     19 H          -4.8413    2.7096   -1.0354 H       1  UNL1        0.0293
     20 O          -2.1125    4.0707    0.3321 O.3     1  UNL1       -0.3891
     21 H          -1.2743    4.5432    0.2092 H       1  UNL1        0.2101
@<TRIPOS>BOND
     1     1     2    1
     2     2     3    1
     3     3     4    1
     4     3     5    1
     5     5     6    1
     6     5     7    1
     7     5     8    1
     8     4     9    1
     9     4    10    1
    10     4    11    1
    11     1    12    1
    12     1    13    1
    13     1    14    1
    14    12    15    1
    15    12    16    1
    16    12    17    1
    17     2    18    1
    18     2    19    1
    19     3    20    1
    20    20    21    1
