@<TRIPOS>MOLECULE
*****
 28 28 0 0 0
SMALL
GASTEIGER

@<TRIPOS>ATOM
      1 C          -5.1344    0.8624   -0.3698 C.3     1  UNL1       -0.0175
      2 C          -3.8722    1.6269    0.0229 C.3     1  UNL1        0.0606
      3 C          -2.7710    0.6333   -0.3638 C.3     1  UNL1       -0.0147
      4 C          -3.3252   -0.7087    0.1260 C.3     1  UNL1       -0.0475
      5 C          -4.8536   -0.5593    0.1229 C.3     1  UNL1       -0.0478
      6 H          -2.9799   -0.9451    1.1387 H       1  UNL1        0.0269
      7 H          -3.0094   -1.5265   -0.5310 H       1  UNL1        0.0269
      8 H          -5.2363   -0.7177    1.1381 H       1  UNL1        0.0269
      9 H          -5.3300   -1.3027   -0.5250 H       1  UNL1        0.0269
     10 C          -6.4178    1.4609    0.1853 C.3     1  UNL1       -0.0601
     11 H          -5.2188    0.8605   -1.4657 H       1  UNL1        0.0323
     12 H          -6.4809    2.5313   -0.0362 H       1  UNL1        0.0233
     13 H          -6.4881    1.3352    1.2705 H       1  UNL1        0.0233
     14 H          -7.2886    0.9740   -0.2667 H       1  UNL1        0.0233
     15 C          -1.3892    1.0295    0.1688 C.3     1  UNL1       -0.0481
     16 H          -2.6959    0.6004   -1.4605 H       1  UNL1        0.0326
     17 C          -0.3422   -0.0800    0.0529 C.3     1  UNL1       -0.0556
     18 H          -1.4607    1.3401    1.2187 H       1  UNL1        0.0269
     19 H          -1.0482    1.9105   -0.3896 H       1  UNL1        0.0269
     20 C           1.0702    0.4862    0.0837 C.3     1  UNL1       -0.0653
     21 H          -0.4757   -0.6474   -0.8747 H       1  UNL1        0.0263
     22 H          -0.4646   -0.7822    0.8860 H       1  UNL1        0.0263
     23 H           1.2770    1.0489   -0.8330 H       1  UNL1        0.0230
     24 H           1.8046   -0.3220    0.1543 H       1  UNL1        0.0230
     25 H           1.2141    1.1570    0.9365 H       1  UNL1        0.0230
     26 O          -3.7795    2.8384   -0.7056 O.3     1  UNL1       -0.3912
     27 H          -3.8575    1.8496    1.0976 H       1  UNL1        0.0599
     28 H          -2.8658    3.1544   -0.6495 H       1  UNL1        0.2098
@<TRIPOS>BOND
     1     1     2    1
     2     2     3    1
     3     3     4    1
     4     4     5    1
     5     4     6    1
     6     4     7    1
     7     5     1    1
     8     5     8    1
     9     5     9    1
    10     1    10    1
    11     1    11    1
    12    10    12    1
    13    10    13    1
    14    10    14    1
    15     3    15    1
    16     3    16    1
    17    15    17    1
    18    15    18    1
    19    15    19    1
    20    17    20    1
    21    17    21    1
    22    17    22    1
    23    20    23    1
    24    20    24    1
    25    20    25    1
    26     2    26    1
    27     2    27    1
    28    26    28    1
