@<TRIPOS>MOLECULE
*****
 20 20 0 0 0
SMALL
GASTEIGER

@<TRIPOS>ATOM
      1 C          -8.2433   -0.9224    0.2935 C.3     1  UNL11      -0.0056
      2 C          -7.1517    0.0721    0.0025 C.2     1  UNL11      -0.0713
      3 C          -7.2984    1.3938    0.1767 C.2     1  UNL11      -0.0991
      4 C          -5.8968   -0.6595   -0.4041 C.3     1  UNL11      -0.0206
      5 C          -4.5771    0.0328   -0.0764 C.3     1  UNL11      -0.0586
      6 H          -3.7307   -0.6328   -0.2761 H       1  UNL11       0.0235
      7 H          -4.5295    0.3267    0.9787 H       1  UNL11       0.0235
      8 H          -4.4424    0.9345   -0.6827 H       1  UNL11       0.0235
      9 C          -7.5276   -2.2687    0.4396 C.3     1  UNL1        0.0594
     10 H          -8.9675   -0.9434   -0.5287 H       1  UNL1        0.0335
     11 H          -8.7645   -0.6628    1.2209 H       1  UNL1        0.0335
     12 C          -6.0300   -1.9853    0.3505 C.3     1  UNL1       -0.0203
     13 H          -5.9438   -0.8539   -1.4836 H       1  UNL1        0.0344
     14 H          -5.4859   -2.7828   -0.1687 H       1  UNL1        0.0296
     15 H          -5.6126   -1.8931    1.3607 H       1  UNL1        0.0296
     16 H          -8.2439    1.8152    0.5044 H       1  UNL1        0.0534
     17 H          -6.4890    2.0914   -0.0103 H       1  UNL1        0.0534
     18 O          -7.9057   -3.1595   -0.6057 O.3     1  UNL1       -0.3915
     19 H          -7.7710   -2.7540    1.3911 H       1  UNL1        0.0596
     20 H          -8.8489   -3.3631   -0.4796 H       1  UNL1        0.2098
@<TRIPOS>BOND
     1     1     2    1
     2     2     3    2
     3     2     4    1
     4     4     5    1
     5     5     6    1
     6     5     7    1
     7     5     8    1
     8     1     9    1
     9     1    10    1
    10     1    11    1
    11     9    12    1
    12     4    12    1
    13     4    13    1
    14    12    14    1
    15    12    15    1
    16     3    16    1
    17     3    17    1
    18     9    18    1
    19     9    19    1
    20    18    20    1
