@<TRIPOS>MOLECULE
*****
 27 26 0 0 0
SMALL
GASTEIGER

@<TRIPOS>ATOM
      1 C          -0.2168    4.9170    2.5746 C.3     1  UNL1       -0.0178
      2 C           1.0420    3.9688    2.4855 C.3     1  UNL1        0.0679
      3 C           0.8097    2.5000    1.9510 C.3     1  UNL1       -0.0178
      4 C           0.4679    1.4698    3.0394 C.3     1  UNL1       -0.0601
      5 H           1.3629    1.2082    3.6153 H       1  UNL1        0.0233
      6 H           0.1038    0.5326    2.6029 H       1  UNL1        0.0233
      7 H          -0.2954    1.8406    3.7285 H       1  UNL1        0.0233
      8 C          -0.2056    2.3519    0.8177 C.3     1  UNL1       -0.0601
      9 H           1.7660    2.1721    1.5161 H       1  UNL1        0.0323
     10 H          -0.2108    1.3236    0.4371 H       1  UNL1        0.0233
     11 H           0.0459    2.9932   -0.0310 H       1  UNL1        0.0233
     12 H          -1.2226    2.5659    1.1624 H       1  UNL1        0.0233
     13 C           1.7655    3.8985    3.8502 C.3     1  UNL1       -0.0356
     14 H           2.5860    3.1723    3.8257 H       1  UNL1        0.0257
     15 H           1.0794    3.6202    4.6578 H       1  UNL1        0.0257
     16 H           2.2397    4.8512    4.1107 H       1  UNL1        0.0257
     17 C           0.0624    6.1777    3.4251 C.3     1  UNL1       -0.0601
     18 H           0.1710    5.9290    4.4849 H       1  UNL1        0.0233
     19 H          -0.7614    6.8976    3.3579 H       1  UNL1        0.0233
     20 H           0.9725    6.6885    3.0906 H       1  UNL1        0.0233
     21 C          -0.7432    5.4518    1.2278 C.3     1  UNL1       -0.0601
     22 H          -1.0292    4.3679    3.0672 H       1  UNL1        0.0323
     23 H          -1.1221    4.6740    0.5689 H       1  UNL1        0.0233
     24 H           0.0235    6.0166    0.6873 H       1  UNL1        0.0233
     25 H          -1.5883    6.1320    1.3904 H       1  UNL1        0.0233
     26 O           1.9962    4.5896    1.6017 O.3     1  UNL1       -0.3883
     27 H           1.6695    4.5050    0.6941 H       1  UNL1        0.2102
@<TRIPOS>BOND
     1     1     2    1
     2     2     3    1
     3     3     4    1
     4     4     5    1
     5     4     6    1
     6     4     7    1
     7     3     8    1
     8     3     9    1
     9     8    10    1
    10     8    11    1
    11     8    12    1
    12     2    13    1
    13    13    14    1
    14    13    15    1
    15    13    16    1
    16     1    17    1
    17    17    18    1
    18    17    19    1
    19    17    20    1
    20     1    21    1
    21     1    22    1
    22    21    23    1
    23    21    24    1
    24    21    25    1
    25     2    26    1
    26    26    27    1
