@<TRIPOS>MOLECULE
*****
 7 6 0 0 0
SMALL
GASTEIGER

@<TRIPOS>ATOM
      1 C          -7.2750    0.0524   -0.0071 C.2     1  UNL11      -0.0645
      2 C          -6.1462    0.7602   -0.0590 C.2     1  UNL11       0.0738
      3 H          -7.2463   -1.0281   -0.1084 H       1  UNL11       0.0565
      4 H          -8.2446    0.5154    0.1348 H       1  UNL11       0.0565
      5 O          -6.0806    2.1183    0.0577 O.2     1  UNL11      -0.5149
      6 H          -5.1639    0.3251   -0.1997 H       1  UNL11       0.1014
      7 H          -6.9813    2.4645    0.1817 H       1  UNL11       0.2912
@<TRIPOS>BOND
     1     1     2    2
     2     1     3    1
     3     1     4    1
     4     2     5    1
     5     2     6    1
     6     5     7    1
