@<TRIPOS>MOLECULE
*****
 19 18 0 0 0
SMALL
GASTEIGER

@<TRIPOS>ATOM
      1 C          -5.5339    0.9871    0.3196 C.3     1  UNL11       0.0030
      2 C          -4.1337    1.4677   -0.0490 C.3     1  UNL11      -0.0443
      3 C          -3.0082    0.4725   -0.3975 C.3     1  UNL11      -0.0463
      4 C          -1.6516    1.1615   -0.1651 C.3     1  UNL11      -0.0627
      5 C          -3.0064   -0.8608    0.3470 C.3     1  UNL11      -0.0627
      6 H          -3.9659   -1.3767    0.3024 H       1  UNL11       0.0232
      7 H          -2.7389   -0.7396    1.4007 H       1  UNL11       0.0232
      8 H          -2.2660   -1.5309   -0.1087 H       1  UNL11       0.0232
      9 H          -1.6643    2.2035   -0.5020 H       1  UNL11       0.0232
     10 H          -0.8516    0.6424   -0.7022 H       1  UNL11       0.0232
     11 H          -1.3913    1.1632    0.9008 H       1  UNL11       0.0232
     12 C          -6.2477    0.0481   -0.6209 C.2     1  UNL11       0.1203
     13 H          -6.1689    1.8839    0.3574 H       1  UNL11       0.0339
     14 H          -5.5553    0.5546    1.3245 H       1  UNL11       0.0339
     15 H          -3.7988    2.1023    0.7827 H       1  UNL11       0.0272
     16 H          -4.2290    2.1486   -0.9073 H       1  UNL11       0.0272
     17 H          -3.0912    0.2552   -1.4707 H       1  UNL11       0.0296
     18 O          -5.7151   -0.8426   -1.2792 O.2     1  UNL11      -0.3010
     19 H          -7.3473    0.1434   -0.6192 H       1  UNL11       0.1026
@<TRIPOS>BOND
     1     1     2    1
     2     2     3    1
     3     3     4    1
     4     3     5    1
     5     5     6    1
     6     5     7    1
     7     5     8    1
     8     4     9    1
     9     4    10    1
    10     4    11    1
    11     1    12    1
    12     1    13    1
    13     1    14    1
    14     2    15    1
    15     2    16    1
    16     3    17    1
    17    12    18    2
    18    12    19    1
