@<TRIPOS>MOLECULE
*****
 16 15 0 0 0
SMALL
GASTEIGER

@<TRIPOS>ATOM
      1 C          -1.9100    1.1462    0.8085 C.3     1  UNL1       -0.0536
      2 C          -0.5876    1.2799    0.0382 C.3     1  UNL1        0.0176
      3 H          -2.3112    2.1204    1.1105 H       1  UNL1        0.0239
      4 H          -1.8173    0.5253    1.7022 H       1  UNL1        0.0239
      5 H          -2.6779    0.6976    0.1615 H       1  UNL1        0.0239
      6 C          -0.6432    2.6079   -0.7303 C.3     1  UNL1       -0.0536
      7 H          -1.5231    2.6844   -1.3755 H       1  UNL1        0.0239
      8 H           0.2548    2.7968   -1.3262 H       1  UNL1        0.0239
      9 H          -0.7088    3.4359   -0.0058 H       1  UNL1        0.0239
     10 C          -0.4281   -0.0028   -0.7938 C.3     1  UNL1       -0.0536
     11 H          -1.2708   -0.1770   -1.4695 H       1  UNL1        0.0239
     12 H          -0.3875   -0.8687   -0.1135 H       1  UNL1        0.0239
     13 H           0.5015   -0.0215   -1.3706 H       1  UNL1        0.0239
     14 C           0.6613    1.3061    0.9228 C.2     1  UNL1        0.1256
     15 O           1.5157    2.1820    0.8914 O.2     1  UNL1       -0.3005
     16 H           0.8230    0.4114    1.5504 H       1  UNL1        0.1032
@<TRIPOS>BOND
     1     1     2    1
     2     1     3    1
     3     1     4    1
     4     1     5    1
     5     2     6    1
     6     6     7    1
     7     6     8    1
     8     6     9    1
     9     2    10    1
    10    10    11    1
    11    10    12    1
    12    10    13    1
    13     2    14    1
    14    14    15    2
    15    14    16    1
