@<TRIPOS>MOLECULE
*****
 14 14 0 0 0
SMALL
GASTEIGER

@<TRIPOS>ATOM
      1 C           1.9234   -2.8807    0.6953 C.3     1  UNL1       -0.0403
      2 C           2.0814   -1.4553    0.2333 C.3     1  UNL1       -0.0340
      3 C           0.9043   -2.2832   -0.2413 C.3     1  UNL1        0.0173
      4 C           1.8676   -0.3333    1.1949 C.3     1  UNL1       -0.0618
      5 H           2.8620   -1.2295   -0.4851 H       1  UNL1        0.0305
      6 H           0.9306    0.1916    0.9845 H       1  UNL1        0.0233
      7 H           2.6838    0.3922    1.1162 H       1  UNL1        0.0233
      8 H           1.8394   -0.6892    2.2299 H       1  UNL1        0.0233
      9 H           1.6101   -3.0701    1.7166 H       1  UNL1        0.0275
     10 H           2.6258   -3.6136    0.3143 H       1  UNL1        0.0275
     11 C           0.8413   -2.7264   -1.6541 C.2     1  UNL1        0.1236
     12 H          -0.0691   -2.0515    0.1811 H       1  UNL1        0.0377
     13 O           0.0241   -2.2446   -2.4276 O.2     1  UNL1       -0.3007
     14 H           1.5568   -3.5040   -1.9692 H       1  UNL1        0.1029
@<TRIPOS>BOND
     1     1     2    1
     2     2     3    1
     3     3     1    1
     4     2     4    1
     5     2     5    1
     6     4     6    1
     7     4     7    1
     8     4     8    1
     9     1     9    1
    10     1    10    1
    11     3    11    1
    12     3    12    1
    13    11    13    2
    14    11    14    1
