@<TRIPOS>MOLECULE
*****
 19 18 0 0 0
SMALL
GASTEIGER

@<TRIPOS>ATOM
      1 C          -7.6731    1.5232    0.0000 C.3     1  UNL1        0.0030
      2 C          -4.8657    2.4406   -0.0000 C.3     1  UNL1       -0.0443
      3 C          -1.5760    0.6578    0.0000 C.3     1  UNL1       -0.0463
      4 C           1.3176    2.0252   -0.0000 C.3     1  UNL1       -0.0627
      5 C          -2.6610   -2.2848    0.0000 C.3     1  UNL1       -0.0627
      6 H          -3.7309   -2.2704    0.0000 H       1  UNL1        0.0232
      7 H          -2.3112   -2.7940    0.8737 H       1  UNL1        0.0232
      8 H          -2.3112   -2.7940   -0.8736 H       1  UNL1        0.0232
      9 H           1.2090    3.0897   -0.0000 H       1  UNL1        0.0232
     10 H           1.8556    1.7215   -0.8737 H       1  UNL1        0.0232
     11 H           1.8556    1.7215    0.8736 H       1  UNL1        0.0232
     12 C          -9.6494   -0.5350   -0.3974 C.2     1  UNL1        0.1203
     13 H          -8.0756    2.2558   -0.6680 H       1  UNL1        0.0339
     14 H          -7.5274    1.1568    0.9947 H       1  UNL1        0.0339
     15 H          -4.8099    3.0559    0.8737 H       1  UNL1        0.0272
     16 H          -4.8413    2.7096   -1.0354 H       1  UNL1        0.0272
     17 H          -0.5121    0.7721   -0.0000 H       1  UNL1        0.0296
     18 O          -7.3903   -1.9031   -0.3553 O.2     1  UNL1       -0.3010
     19 H         -10.6681   -0.6649   -0.4991 H       1  UNL1        0.1026
@<TRIPOS>BOND
     1     1     2    1
     2     2     3    1
     3     3     4    1
     4     3     5    1
     5     5     6    1
     6     5     7    1
     7     5     8    1
     8     4     9    1
     9     4    10    1
    10     4    11    1
    11     1    12    1
    12     1    13    1
    13     1    14    1
    14     2    15    1
    15     2    16    1
    16     3    17    1
    17    12    18    2
    18    12    19    1
