@<TRIPOS>MOLECULE
*****
 19 18 0 0 0
SMALL
GASTEIGER

@<TRIPOS>ATOM
      1 C          -3.7499    1.7285   -0.0649 C.3     1  UNL1       -0.0620
      2 C          -2.2693    1.6193    0.3196 C.3     1  UNL1       -0.0377
      3 C          -1.7532    0.2392   -0.1300 C.3     1  UNL1        0.0053
      4 H          -4.3237    0.8989    0.3625 H       1  UNL1        0.0233
      5 H          -3.8773    1.7023   -1.1526 H       1  UNL1        0.0233
      6 H          -4.1988    2.6530    0.3106 H       1  UNL1        0.0233
      7 C          -0.3106   -0.0283    0.2205 C.2     1  UNL1        0.1206
      8 H          -1.8512    0.1301   -1.2159 H       1  UNL1        0.0341
      9 H          -2.3564   -0.5476    0.3400 H       1  UNL1        0.0341
     10 C          -1.4235    2.7704   -0.2659 C.3     1  UNL1       -0.0529
     11 H          -2.2005    1.6770    1.4142 H       1  UNL1        0.0302
     12 C          -2.0156    4.1601   -0.0762 C.3     1  UNL1       -0.0650
     13 H          -1.2476    2.6044   -1.3353 H       1  UNL1        0.0265
     14 H          -0.4410    2.7670    0.2211 H       1  UNL1        0.0265
     15 H          -2.8750    4.3158   -0.7358 H       1  UNL1        0.0230
     16 H          -1.2701    4.9221   -0.3266 H       1  UNL1        0.0230
     17 H          -2.3319    4.3221    0.9587 H       1  UNL1        0.0230
     18 O           0.0758   -1.0862    0.7102 O.2     1  UNL1       -0.3010
     19 H           0.4197    0.7392   -0.0824 H       1  UNL1        0.1026
@<TRIPOS>BOND
     1     1     2    1
     2     2     3    1
     3     1     4    1
     4     1     5    1
     5     1     6    1
     6     3     7    1
     7     3     8    1
     8     3     9    1
     9     2    10    1
    10     2    11    1
    11    10    12    1
    12    10    13    1
    13    10    14    1
    14    12    15    1
    15    12    16    1
    16    12    17    1
    17     7    18    2
    18     7    19    1
