@<TRIPOS>MOLECULE
*****
 20 21 0 0 0
SMALL
GASTEIGER

@<TRIPOS>ATOM
      1 C          -0.4840    4.9513    1.2419 C.ar    1  UNL1       -0.0172
      2 C          -0.0717    3.6569    1.5938 C.ar    1  UNL1       -0.0438
      3 C          -0.3074    2.5823    0.7313 C.ar    1  UNL1        0.0148
      4 C          -0.9569    2.7804   -0.4873 C.ar    1  UNL1       -0.0509
      5 C          -1.3713    4.0651   -0.8460 C.ar    1  UNL1       -0.0534
      6 C          -1.1413    5.1588    0.0057 C.ar    1  UNL1       -0.0178
      7 C          -0.2561    6.0456    2.0914 C.ar    1  UNL1       -0.0540
      8 C          -0.6682    7.3283    1.7273 C.ar    1  UNL1       -0.0612
      9 C          -1.3132    7.5332    0.5112 C.ar    1  UNL1       -0.0612
     10 C          -1.5493    6.4558   -0.3444 C.ar    1  UNL1       -0.0540
     11 H           0.4361    3.4809    2.5407 H       1  UNL1        0.0630
     12 H          -1.1456    1.9517   -1.1645 H       1  UNL1        0.0625
     13 H          -1.8765    4.2099   -1.7990 H       1  UNL1        0.0624
     14 H           0.2469    5.9059    3.0461 H       1  UNL1        0.0624
     15 H          -0.4842    8.1667    2.3943 H       1  UNL1        0.0618
     16 H          -1.6332    8.5325    0.2272 H       1  UNL1        0.0618
     17 H          -2.0551    6.6383   -1.2900 H       1  UNL1        0.0624
     18 C           0.1330    1.2229    1.1032 C.2     1  UNL1        0.1502
     19 O           0.7103    0.9886    2.1574 O.2     1  UNL1       -0.2957
     20 H          -0.0838    0.4200    0.3787 H       1  UNL1        0.1081
@<TRIPOS>BOND
     1     1     2   ar
     2     2     3   ar
     3     3     4   ar
     4     4     5   ar
     5     5     6   ar
     6     6     1   ar
     7     1     7   ar
     8     7     8   ar
     9     8     9   ar
    10     9    10   ar
    11    10     6   ar
    12     2    11    1
    13     4    12    1
    14     5    13    1
    15     7    14    1
    16     8    15    1
    17     9    16    1
    18    10    17    1
    19     3    18    1
    20    18    19    2
    21    18    20    1
