@<TRIPOS>MOLECULE
*****
 32 33 0 0 0
SMALL
GASTEIGER

@<TRIPOS>ATOM
      1 C          -4.5585    1.2784   -0.9956 C.3     1  UNL1       -0.0570
      2 C          -5.8137    1.9995   -0.5293 C.3     1  UNL1        0.0220
      3 H          -4.7810    0.5393   -1.7710 H       1  UNL1        0.0234
      4 H          -4.0713    0.7639   -0.1612 H       1  UNL1        0.0234
      5 H          -3.8453    2.0014   -1.4067 H       1  UNL1        0.0234
      6 C          -6.9611    1.0578   -0.1245 C.2     1  UNL1        0.2239
      7 H          -6.1596    2.6406   -1.3477 H       1  UNL1        0.0356
      8 H          -5.5318    2.6222    0.3232 H       1  UNL1        0.0356
      9 N          -8.2177    1.6844    0.0673 N.am    1  UNL1       -0.2403
     10 O          -6.7425   -0.1519   -0.0305 O.2     1  UNL1       -0.2749
     11 C          -8.2726    3.0977    0.2737 C.ar    1  UNL1        0.0413
     12 C          -7.6598    3.6578    1.4034 C.ar    1  UNL1       -0.0399
     13 C          -7.7153    5.0341    1.6228 C.ar    1  UNL1       -0.0600
     14 C          -8.3965    5.8552    0.7252 C.ar    1  UNL1       -0.0616
     15 C          -8.9267    3.9349   -0.6413 C.ar    1  UNL1       -0.0399
     16 C          -9.0028    5.3073   -0.4049 C.ar    1  UNL1       -0.0600
     17 H          -9.3921    3.5174   -1.5314 H       1  UNL1        0.0636
     18 H          -9.5387    5.9478   -1.1005 H       1  UNL1        0.0618
     19 H          -8.4566    6.9252    0.9081 H       1  UNL1        0.0618
     20 H          -7.1506    3.0235    2.1260 H       1  UNL1        0.0636
     21 H          -7.2361    5.4636    2.4991 H       1  UNL1        0.0618
     22 C          -9.4923    0.9754    0.0716 C.ar    1  UNL1        0.0413
     23 C         -10.7131    1.6408    0.3277 C.ar    1  UNL1       -0.0399
     24 C         -11.9561    1.0049    0.2166 C.ar    1  UNL1       -0.0600
     25 C         -12.0176   -0.3441   -0.0920 C.ar    1  UNL1       -0.0616
     26 C         -10.8353   -1.0509   -0.2719 C.ar    1  UNL1       -0.0600
     27 C          -9.5927   -0.3984   -0.1986 C.ar    1  UNL1       -0.0399
     28 H         -10.7452    2.6877    0.6152 H       1  UNL1        0.0636
     29 H         -12.8693    1.5739    0.3727 H       1  UNL1        0.0618
     30 H         -12.9784   -0.8433   -0.1803 H       1  UNL1        0.0618
     31 H         -10.8703   -2.1174   -0.4814 H       1  UNL1        0.0618
     32 H          -8.7190   -1.0184   -0.3673 H       1  UNL1        0.0636
@<TRIPOS>BOND
     1     1     2    1
     2     1     3    1
     3     1     4    1
     4     1     5    1
     5     2     6    1
     6     2     7    1
     7     2     8    1
     8     6     9   am
     9     6    10    2
    10     9    11    1
    11    12    11   ar
    12    12    13   ar
    13    13    14   ar
    14    15    11   ar
    15    15    16   ar
    16    16    14   ar
    17    15    17    1
    18    16    18    1
    19    14    19    1
    20    12    20    1
    21    13    21    1
    22     9    22    1
    23    22    23   ar
    24    23    24   ar
    25    24    25   ar
    26    25    26   ar
    27    26    27   ar
    28    22    27   ar
    29    23    28    1
    30    24    29    1
    31    25    30    1
    32    26    31    1
    33    27    32    1
