@<TRIPOS>MOLECULE
*****
 21 21 0 0 0
SMALL
GASTEIGER

@<TRIPOS>ATOM
      1 C          -5.1224    6.4909    0.6566 C.2     1  UNL1       -0.0862
      2 C          -6.4571    6.4182    0.4929 C.2     1  UNL1       -0.0759
      3 C          -6.3851    5.0791   -0.2331 C.3     1  UNL1        0.0573
      4 C          -4.9153    5.0468    0.2561 C.3     1  UNL1       -0.0201
      5 H          -4.7031    4.3574    1.0816 H       1  UNL1        0.0318
      6 H          -4.1845    4.8632   -0.5391 H       1  UNL1        0.0318
      7 H          -4.4549    7.2468    1.0604 H       1  UNL1        0.0569
      8 H          -7.2837    7.1002    0.6746 H       1  UNL1        0.0577
      9 C          -7.4146    4.0343    0.2957 C.2     1  UNL1        0.2241
     10 H          -6.4633    5.1652   -1.3269 H       1  UNL1        0.0440
     11 N          -6.9598    2.7191    0.1926 N.am    1  UNL1       -0.2894
     12 O          -8.5349    4.3326    0.7154 O.2     1  UNL1       -0.2748
     13 C          -7.6966    1.5623    0.3603 C.2     1  UNL1        0.0003
     14 H          -5.9881    2.5950   -0.0626 H       1  UNL1        0.1545
     15 C          -9.1853    1.6351    0.5670 C.3     1  UNL1       -0.0270
     16 H          -9.4251    2.0764    1.5391 H       1  UNL1        0.0290
     17 H          -9.6475    0.6418    0.5371 H       1  UNL1        0.0290
     18 H          -9.6583    2.2229   -0.2273 H       1  UNL1        0.0290
     19 C          -7.0698    0.3782    0.2814 C.2     1  UNL1       -0.0818
     20 H          -6.0009    0.2902    0.1219 H       1  UNL1        0.0550
     21 H          -7.6200   -0.5529    0.3857 H       1  UNL1        0.0550
@<TRIPOS>BOND
     1     1     2    2
     2     2     3    1
     3     1     4    1
     4     4     3    1
     5     4     5    1
     6     4     6    1
     7     1     7    1
     8     2     8    1
     9     3     9    1
    10     3    10    1
    11     9    11   am
    12     9    12    2
    13    11    13    1
    14    11    14    1
    15    13    15    1
    16    15    16    1
    17    15    17    1
    18    15    18    1
    19    13    19    2
    20    19    20    1
    21    19    21    1
