@<TRIPOS>MOLECULE
*****
 27 26 0 0 0
SMALL
GASTEIGER

@<TRIPOS>ATOM
      1 C          -1.9053    3.1815   -0.0526 C.3     1  UNL1       -0.0570
      2 C          -3.2303    3.2420    0.6834 C.3     1  UNL1        0.0213
      3 H          -2.0325    2.9729   -1.1185 H       1  UNL1        0.0234
      4 H          -1.2456    2.4231    0.3795 H       1  UNL1        0.0234
      5 H          -1.3755    4.1351    0.0478 H       1  UNL1        0.0234
      6 C          -4.3760    2.3443    0.2119 C.2     1  UNL1        0.2153
      7 H          -3.6029    4.2701    0.5663 H       1  UNL1        0.0356
      8 H          -3.0893    3.0941    1.7586 H       1  UNL1        0.0356
      9 N          -4.2763    0.9392    0.3278 N.am    1  UNL1       -0.3018
     10 C          -2.9490    0.3192    0.2339 C.3     1  UNL1        0.0144
     11 C          -2.7811   -1.1916    0.1138 C.3     1  UNL1       -0.0400
     12 H          -2.4001    0.6524    1.1226 H       1  UNL1        0.0464
     13 H          -2.4658    0.7557   -0.6459 H       1  UNL1        0.0464
     14 C          -1.3073   -1.5778    0.0541 C.3     1  UNL1       -0.0639
     15 H          -3.2563   -1.5465   -0.8061 H       1  UNL1        0.0278
     16 H          -3.2290   -1.7049    0.9684 H       1  UNL1        0.0278
     17 H          -0.8111   -1.1076   -0.8011 H       1  UNL1        0.0230
     18 H          -1.2051   -2.6628   -0.0496 H       1  UNL1        0.0230
     19 H          -0.7845   -1.2726    0.9661 H       1  UNL1        0.0230
     20 C          -5.5318    0.2461   -0.0138 C.3     1  UNL1        0.0118
     21 C          -5.7434   -1.1969    0.4108 C.3     1  UNL1       -0.0493
     22 H          -5.6971    0.3508   -1.0919 H       1  UNL1        0.0462
     23 H          -6.3352    0.8114    0.4800 H       1  UNL1        0.0462
     24 H          -5.2745   -1.8940   -0.2875 H       1  UNL1        0.0245
     25 H          -6.8129   -1.4349    0.3901 H       1  UNL1        0.0245
     26 H          -5.3803   -1.3880    1.4239 H       1  UNL1        0.0245
     27 O          -5.4138    2.8867   -0.1795 O.2     1  UNL1       -0.2756
@<TRIPOS>BOND
     1     1     2    1
     2     1     3    1
     3     1     4    1
     4     1     5    1
     5     2     6    1
     6     2     7    1
     7     2     8    1
     8     6     9   am
     9     9    10    1
    10    10    11    1
    11    10    12    1
    12    10    13    1
    13    11    14    1
    14    11    15    1
    15    11    16    1
    16    14    17    1
    17    14    18    1
    18    14    19    1
    19     9    20    1
    20    20    21    1
    21    20    22    1
    22    20    23    1
    23    21    24    1
    24    21    25    1
    25    21    26    1
    26     6    27    2
