@<TRIPOS>MOLECULE
*****
 22 21 0 0 0
SMALL
GASTEIGER

@<TRIPOS>ATOM
      1 C          -0.6949    0.0843   -0.0787 C.2     1  UNL1        0.2140
      2 C          -2.0525   -0.5481    0.2592 C.3     1  UNL1        0.0433
      3 C          -3.2167    0.2829   -0.3431 C.3     1  UNL1        0.0433
      4 C          -4.6558   -0.1624   -0.0593 C.2     1  UNL1        0.2140
      5 C          -3.1320    1.7623    0.0946 C.3     1  UNL1       -0.0534
      6 H          -3.1273    0.2465   -1.4379 H       1  UNL1        0.0399
      7 H          -4.1076    2.2589    0.1259 H       1  UNL1        0.0237
      8 H          -2.5165    2.3364   -0.6059 H       1  UNL1        0.0237
      9 H          -2.6891    1.8612    1.0917 H       1  UNL1        0.0237
     10 C          -1.9793   -1.9912   -0.2623 C.3     1  UNL1       -0.0534
     11 H          -2.1600   -0.5662    1.3520 H       1  UNL1        0.0399
     12 H          -2.9478   -2.4858   -0.3348 H       1  UNL1        0.0237
     13 H          -1.3576   -2.5989    0.4072 H       1  UNL1        0.0237
     14 H          -1.5171   -2.0337   -1.2546 H       1  UNL1        0.0237
     15 N           0.3711   -0.3915    0.6307 N.am    1  UNL1       -0.3291
     16 H           0.3337   -1.2237    1.1992 H       1  UNL1        0.1449
     17 H           1.2813   -0.0492    0.3463 H       1  UNL1        0.1449
     18 N          -4.9094   -1.1627    0.8208 N.am    1  UNL1       -0.3291
     19 H          -5.8907   -1.4140    0.8775 H       1  UNL1        0.1449
     20 H          -4.2572   -1.9015    1.0249 H       1  UNL1        0.1449
     21 O          -0.5129    0.9196   -0.9489 O.2     1  UNL1       -0.2757
     22 O          -5.6218    0.3989   -0.5775 O.2     1  UNL1       -0.2757
@<TRIPOS>BOND
     1     1     2    1
     2     2     3    1
     3     3     4    1
     4     3     5    1
     5     3     6    1
     6     5     7    1
     7     5     8    1
     8     5     9    1
     9     2    10    1
    10     2    11    1
    11    10    12    1
    12    10    13    1
    13    10    14    1
    14     1    15   am
    15    15    16    1
    16    15    17    1
    17     4    18   am
    18    18    19    1
    19    18    20    1
    20     1    21    2
    21     4    22    2
