@<TRIPOS>MOLECULE
*****
 25 25 0 0 0
SMALL
GASTEIGER

@<TRIPOS>ATOM
      1 C          -3.2351   -0.3915    0.3529 C.3     1  UNL1       -0.0580
      2 C          -2.3653    0.8967    0.4107 C.3     1  UNL1       -0.0105
      3 H          -4.3053   -0.2619    0.4961 H       1  UNL1        0.0236
      4 H          -2.9133   -1.0796    1.1428 H       1  UNL1        0.0236
      5 H          -3.1062   -0.9127   -0.6051 H       1  UNL1        0.0236
      6 C          -1.0589    0.5013   -0.3364 C.3     1  UNL1        0.0303
      7 C           0.2727    1.1223    0.0632 C.2     1  UNL1        0.2110
      8 H          -1.1756    0.6092   -1.4198 H       1  UNL1        0.0364
      9 H          -0.9106   -0.5746   -0.1517 H       1  UNL1        0.0364
     10 N           1.3214    0.2367    0.0740 N.am    1  UNL1       -0.3293
     11 C          -3.1140    2.1880    0.0211 C.ar    1  UNL1       -0.0441
     12 H          -2.1136    1.0482    1.4701 H       1  UNL1        0.0351
     13 H           1.2066   -0.7657    0.0294 H       1  UNL1        0.1449
     14 H           2.2371    0.6004    0.3061 H       1  UNL1        0.1449
     15 O           0.4827    2.3024    0.2768 O.2     1  UNL1       -0.2760
     16 C          -4.5213    2.2532   -0.0661 C.ar    1  UNL1       -0.0583
     17 C          -5.2159    3.4668   -0.1773 C.ar    1  UNL1       -0.0615
     18 C          -4.5230    4.6653   -0.2168 C.ar    1  UNL1       -0.0617
     19 C          -3.1357    4.6405   -0.1701 C.ar    1  UNL1       -0.0615
     20 C          -2.4452    3.4214   -0.0532 C.ar    1  UNL1       -0.0583
     21 H          -1.3675    3.4864    0.0322 H       1  UNL1        0.0620
     22 H          -5.0595    5.6085   -0.2683 H       1  UNL1        0.0618
     23 H          -2.5802    5.5753   -0.1887 H       1  UNL1        0.0618
     24 H          -5.1491    1.3724   -0.0073 H       1  UNL1        0.0620
     25 H          -6.3031    3.4656   -0.2003 H       1  UNL1        0.0618
@<TRIPOS>BOND
     1     1     2    1
     2     1     3    1
     3     1     4    1
     4     1     5    1
     5     2     6    1
     6     6     7    1
     7     6     8    1
     8     6     9    1
     9     7    10   am
    10     2    11    1
    11     2    12    1
    12    10    13    1
    13    10    14    1
    14     7    15    2
    15    11    16   ar
    16    16    17   ar
    17    17    18   ar
    18    18    19   ar
    19    19    20   ar
    20    20    11   ar
    21    20    21    1
    22    18    22    1
    23    19    23    1
    24    16    24    1
    25    17    25    1
