@<TRIPOS>MOLECULE
*****
 22 22 0 0 0
SMALL
GASTEIGER

@<TRIPOS>ATOM
      1 C          -7.9957    5.9352   -0.0374 C.ar    1  UNL1       -0.0345
      2 C          -6.7865    6.6453   -0.0649 C.ar    1  UNL1        0.0171
      3 C          -5.5527    5.9539   -0.0958 C.ar    1  UNL1       -0.0412
      4 C          -5.4773    4.5550   -0.1096 C.ar    1  UNL1       -0.0246
      5 I          -6.5625    8.7354   -0.0880 I       1  UNL1       -0.0435
      6 H          -4.6238    6.5227   -0.1209 H       1  UNL1        0.0634
      7 C          -7.8973    4.5221   -0.0406 C.ar    1  UNL1       -0.0570
      8 C          -6.6728    3.8460   -0.0735 C.ar    1  UNL1       -0.0543
      9 H          -6.6876    2.7603   -0.0800 H       1  UNL1        0.0624
     10 C          -4.1505    3.9180   -0.1755 C.2     1  UNL1       -0.0617
     11 C          -9.4299    6.4310   -0.0638 C.3     1  UNL1       -0.0295
     12 H          -8.8056    3.9184   -0.0283 H       1  UNL1        0.0621
     13 C          -9.8217    7.8767    0.1794 C.3     1  UNL1       -0.0612
     14 H          -9.9797    5.8487    0.6899 H       1  UNL1        0.0311
     15 H          -9.8472    6.1430   -1.0385 H       1  UNL1        0.0311
     16 H          -9.4347    8.2491    1.1318 H       1  UNL1        0.0233
     17 H         -10.9143    7.9568    0.2191 H       1  UNL1        0.0233
     18 H          -9.4987    8.5245   -0.6394 H       1  UNL1        0.0233
     19 C          -3.8969    2.6026   -0.2205 C.2     1  UNL1       -0.0981
     20 H          -3.2992    4.5963   -0.1987 H       1  UNL1        0.0618
     21 H          -4.6697    1.8439   -0.2076 H       1  UNL1        0.0535
     22 H          -2.8715    2.2490   -0.2763 H       1  UNL1        0.0535
@<TRIPOS>BOND
     1     1     2   ar
     2     2     3   ar
     3     3     4   ar
     4     2     5    1
     5     3     6    1
     6     1     7   ar
     7     7     8   ar
     8     8     4   ar
     9     8     9    1
    10     4    10    1
    11     1    11    1
    12     7    12    1
    13    11    13    1
    14    11    14    1
    15    11    15    1
    16    13    16    1
    17    13    17    1
    18    13    18    1
    19    10    19    2
    20    10    20    1
    21    19    21    1
    22    19    22    1
