@<TRIPOS>MOLECULE
*****
 12 12 0 0 0
SMALL
GASTEIGER

@<TRIPOS>ATOM
      1 C          -8.1021    6.0323    0.0125 C.ar    1  UNL1       -0.0485
      2 C          -7.0035    6.8915   -0.0437 C.ar    1  UNL1        0.0144
      3 C          -5.7069    6.3819   -0.1210 C.ar    1  UNL1       -0.0355
      4 C          -5.5174    4.9997   -0.1419 C.ar    1  UNL1        0.0144
      5 I          -7.3028    8.9491   -0.0117 I       1  UNL1       -0.0438
      6 H          -4.8542    7.0541   -0.1646 H       1  UNL1        0.0638
      7 C          -7.9029    4.6510   -0.0089 C.ar    1  UNL1       -0.0598
      8 C          -6.6094    4.1322   -0.0862 C.ar    1  UNL1       -0.0485
      9 H          -6.4693    3.0542   -0.1020 H       1  UNL1        0.0628
     10 I          -3.5912    4.2245   -0.2570 I       1  UNL1       -0.0438
     11 H          -9.1152    6.4223    0.0729 H       1  UNL1        0.0628
     12 H          -8.7562    3.9784    0.0347 H       1  UNL1        0.0618
@<TRIPOS>BOND
     1     1     2   ar
     2     2     3   ar
     3     3     4   ar
     4     2     5    1
     5     3     6    1
     6     1     7   ar
     7     7     8   ar
     8     8     4   ar
     9     8     9    1
    10     4    10    1
    11     1    11    1
    12     7    12    1
