@<TRIPOS>MOLECULE
*****
 18 19 0 0 0
SMALL
GASTEIGER

@<TRIPOS>ATOM
      1 C          -9.0946    4.1042    0.0548 C.ar    1  UNL1       -0.0400
      2 C          -7.9544    4.9216   -0.0040 C.ar    1  UNL1       -0.0158
      3 C          -6.6738    4.3219   -0.0811 C.ar    1  UNL1       -0.0178
      4 C          -6.5691    2.9218   -0.0973 C.ar    1  UNL1       -0.0530
      5 C          -8.9667    2.7156    0.0375 C.ar    1  UNL1        0.0185
      6 C          -7.7111    2.1207   -0.0382 C.ar    1  UNL1       -0.0472
      7 H         -10.0838    4.5525    0.1143 H       1  UNL1        0.0635
      8 BR        -10.5133    1.6308    0.1174 Br      1  UNL1       -0.0503
      9 H          -7.6085    1.0388   -0.0519 H       1  UNL1        0.0629
     10 H          -5.5939    2.4428   -0.1562 H       1  UNL1        0.0624
     11 C          -8.0588    6.3218    0.0121 C.ar    1  UNL1       -0.0400
     12 C          -6.9123    7.1137   -0.0472 C.ar    1  UNL1        0.0185
     13 C          -5.6513    6.5302   -0.1231 C.ar    1  UNL1       -0.0472
     14 C          -5.5334    5.1391   -0.1400 C.ar    1  UNL1       -0.0530
     15 H          -4.5411    4.6968   -0.1996 H       1  UNL1        0.0624
     16 BR         -7.0722    8.9976   -0.0244 Br      1  UNL1       -0.0503
     17 H          -4.7563    7.1449   -0.1695 H       1  UNL1        0.0629
     18 H          -9.0365    6.7945    0.0711 H       1  UNL1        0.0635
@<TRIPOS>BOND
     1     1     2   ar
     2     2     3   ar
     3     3     4   ar
     4     1     5   ar
     5     5     6   ar
     6     6     4   ar
     7     1     7    1
     8     5     8    1
     9     6     9    1
    10     4    10    1
    11     2    11   ar
    12    11    12   ar
    13    12    13   ar
    14    13    14   ar
    15    14     3   ar
    16    14    15    1
    17    12    16    1
    18    13    17    1
    19    11    18    1
