@<TRIPOS>MOLECULE
*****
 12 12 0 0 0
SMALL
GASTEIGER

@<TRIPOS>ATOM
      1 C          -9.3200    3.8718    0.0660 C.ar    1  UNL1       -0.0420
      2 C          -8.1756    4.6739    0.0068 C.ar    1  UNL1        0.0592
      3 C          -6.9117    4.0776   -0.0694 C.ar    1  UNL1        0.0592
      4 C          -6.8008    2.6834   -0.0858 C.ar    1  UNL1       -0.0420
      5 C          -9.2046    2.4805    0.0493 C.ar    1  UNL1       -0.0603
      6 C          -7.9459    1.8867   -0.0266 C.ar    1  UNL1       -0.0603
      7 CL         -8.3928    6.3879    0.0316 Cl      1  UNL1       -0.0820
      8 CL         -5.4534    5.0012   -0.1455 Cl      1  UNL1       -0.0820
      9 H         -10.2528    4.3099    0.1221 H       1  UNL1        0.0633
     10 H         -10.0512    1.8918    0.0931 H       1  UNL1        0.0618
     11 H          -7.8603    0.8583   -0.0389 H       1  UNL1        0.0618
     12 H          -5.8696    2.2421   -0.1420 H       1  UNL1        0.0633
@<TRIPOS>BOND
     1     1     2   ar
     2     2     3   ar
     3     3     4   ar
     4     1     5   ar
     5     5     6   ar
     6     6     4   ar
     7     2     7    1
     8     3     8    1
     9     1     9    1
    10     5    10    1
    11     6    11    1
    12     4    12    1
