@<TRIPOS>MOLECULE
*****
 18 18 0 0 0
SMALL
GASTEIGER

@<TRIPOS>ATOM
      1 C          -7.2754    2.2703    0.2493 C.ar    1  UNL1       -0.0604
      2 C          -8.4673    2.9744    0.3970 C.ar    1  UNL1       -0.0431
      3 C          -7.2624    5.0921    0.5477 C.ar    1  UNL1       -0.0293
      4 C          -6.0720    2.9619    0.2434 C.ar    1  UNL1       -0.0614
      5 C          -6.0686    4.3509    0.3900 C.ar    1  UNL1       -0.0572
      6 H          -5.1050    4.8603    0.4030 H       1  UNL1        0.0621
      7 C          -8.4683    4.3701    0.5540 C.ar    1  UNL1        0.0441
      8 C          -7.0885    6.5726    0.8294 C.3     1  UNL1       -0.0291
      9 CL        -10.0178    5.0878    0.7967 Cl      1  UNL1       -0.0833
     10 H          -5.1336    2.4229    0.1414 H       1  UNL1        0.0618
     11 H          -7.2871    1.1883    0.1525 H       1  UNL1        0.0618
     12 H          -9.4056    2.4228    0.4111 H       1  UNL1        0.0632
     13 C          -8.0970    7.5846    0.3045 C.3     1  UNL1       -0.0612
     14 H          -6.1222    6.8820    0.4064 H       1  UNL1        0.0311
     15 H          -6.9966    6.6931    1.9157 H       1  UNL1        0.0311
     16 H          -8.2645    7.4721   -0.7704 H       1  UNL1        0.0233
     17 H          -7.7200    8.5982    0.4853 H       1  UNL1        0.0233
     18 H          -9.0548    7.5288    0.8246 H       1  UNL1        0.0233
@<TRIPOS>BOND
     1     1     2   ar
     2     1     4   ar
     3     4     5   ar
     4     5     3   ar
     5     5     6    1
     6     3     7   ar
     7     7     2   ar
     8     3     8    1
     9     7     9    1
    10     4    10    1
    11     1    11    1
    12     2    12    1
    13     8    13    1
    14     8    14    1
    15     8    15    1
    16    13    16    1
    17    13    17    1
    18    13    18    1
