@<TRIPOS>MOLECULE
*****
 28 27 0 0 0
SMALL
GASTEIGER

@<TRIPOS>ATOM
      1 C          -0.4731    1.7726   -0.5725 C.2     1  UNL1        0.1414
      2 C          -0.4696    0.5368    0.4023 C.3     1  UNL1        0.0124
      3 C          -1.5765   -0.4616    0.0579 C.3     1  UNL1       -0.0559
      4 H          -1.8117   -1.0773    0.9351 H       1  UNL1        0.0236
      5 H          -1.2637   -1.1438   -0.7410 H       1  UNL1        0.0236
      6 H          -2.4961    0.0342   -0.2629 H       1  UNL1        0.0236
      7 C           0.8690   -0.2037    0.4194 C.3     1  UNL1       -0.0559
      8 H          -0.6752    0.9198    1.4102 H       1  UNL1        0.0372
      9 H           1.6453    0.3818    0.9195 H       1  UNL1        0.0236
     10 H           1.2139   -0.4177   -0.5984 H       1  UNL1        0.0236
     11 H           0.7960   -1.1541    0.9588 H       1  UNL1        0.0236
     12 C          -0.0997    3.1896    0.1158 C.3     1  UNL1        0.0234
     13 C          -1.6675    3.3511    0.0911 C.3     1  UNL1       -0.0531
     14 H          -2.0315    3.7505   -0.8706 H       1  UNL1        0.0239
     15 H          -1.9928    4.0334    0.8852 H       1  UNL1        0.0239
     16 H          -2.2896    2.4744    0.3284 H       1  UNL1        0.0239
     17 C           1.3796    2.7506   -0.3252 C.3     1  UNL1       -0.0531
     18 H           1.5473    1.8883   -0.9894 H       1  UNL1        0.0239
     19 H           1.9526    2.5635    0.5906 H       1  UNL1        0.0239
     20 H           1.9584    3.5045   -0.8806 H       1  UNL1        0.0239
     21 C           0.1959    4.7101   -0.3269 C.3     1  UNL1       -0.0440
     22 C          -0.6294    5.8929    0.2056 C.3     1  UNL1       -0.0644
     23 H           0.2449    4.7874   -1.4202 H       1  UNL1        0.0272
     24 H           1.1821    4.9831    0.0855 H       1  UNL1        0.0272
     25 H          -1.5853    5.9954   -0.3150 H       1  UNL1        0.0230
     26 H          -0.0766    6.8251    0.0342 H       1  UNL1        0.0230
     27 H          -0.7994    5.8200    1.2849 H       1  UNL1        0.0230
     28 O          -0.7462    1.6478   -1.7655 O.2     1  UNL1       -0.2966
@<TRIPOS>BOND
     1     1     2    1
     2     2     3    1
     3     3     4    1
     4     3     5    1
     5     3     6    1
     6     2     7    1
     7     2     8    1
     8     7     9    1
     9     7    10    1
    10     7    11    1
    11     1    12    1
    12    12    13    1
    13    13    14    1
    14    13    15    1
    15    13    16    1
    16    12    17    1
    17    17    18    1
    18    17    19    1
    19    17    20    1
    20    12    21    1
    21    21    22    1
    22    21    23    1
    23    21    24    1
    24    22    25    1
    25    22    26    1
    26    22    27    1
    27     1    28    2
