@<TRIPOS>MOLECULE
*****
 19 18 0 0 0
SMALL
GASTEIGER

@<TRIPOS>ATOM
      1 C          -7.6731    1.5232    0.0000 C.3     1  UNL1        0.0032
      2 C          -4.8657    2.4406   -0.0000 C.2     1  UNL1        0.1356
      3 C          -1.5760    0.6578    0.0000 C.3     1  UNL1        0.0119
      4 C           1.3176    2.0252   -0.0000 C.3     1  UNL1       -0.0560
      5 C          -2.6610   -2.2848    0.0000 C.3     1  UNL1       -0.0560
      6 H          -0.5121    0.7721   -0.0000 H       1  UNL1        0.0372
      7 H          -3.7309   -2.2704    0.0000 H       1  UNL1        0.0236
      8 H          -2.3112   -2.7940    0.8737 H       1  UNL1        0.0236
      9 H          -2.3112   -2.7940   -0.8736 H       1  UNL1        0.0236
     10 H           1.2090    3.0897   -0.0000 H       1  UNL1        0.0236
     11 H           1.8556    1.7215   -0.8737 H       1  UNL1        0.0236
     12 H           1.8556    1.7215    0.8736 H       1  UNL1        0.0236
     13 C          -9.6494   -0.5350   -0.3974 C.3     1  UNL1       -0.0586
     14 H          -8.0756    2.2558   -0.6680 H       1  UNL1        0.0339
     15 H          -7.5274    1.1568    0.9947 H       1  UNL1        0.0339
     16 H         -10.0474   -0.4609   -1.3878 H       1  UNL1        0.0234
     17 H         -10.4391   -0.4135    0.3144 H       1  UNL1        0.0234
     18 H          -9.1957   -1.4952   -0.2662 H       1  UNL1        0.0234
     19 O          -3.9177    6.3490    0.5142 O.2     1  UNL1       -0.2971
@<TRIPOS>BOND
     1     1     2    1
     2     2     3    1
     3     3     4    1
     4     3     5    1
     5     3     6    1
     6     5     7    1
     7     5     8    1
     8     5     9    1
     9     4    10    1
    10     4    11    1
    11     4    12    1
    12     1    13    1
    13     1    14    1
    14     1    15    1
    15    13    16    1
    16    13    17    1
    17    13    18    1
    18     2    19    2
