@<TRIPOS>MOLECULE
*****
 14 14 0 0 0
SMALL
GASTEIGER

@<TRIPOS>ATOM
      1 C          -3.9233   -4.8974    4.5547 C.3     1  UNL1       -0.0460
      2 C          -4.5574   -3.5848    4.9828 C.3     1  UNL1        0.0058
      3 C          -3.8736   -2.5493    4.1443 C.2     1  UNL1        0.1334
      4 H          -4.3776   -3.3813    6.0417 H       1  UNL1        0.0342
      5 H          -5.6307   -3.5778    4.7735 H       1  UNL1        0.0342
      6 C          -2.8623   -4.6093    3.4999 C.3     1  UNL1       -0.0460
      7 H          -4.6854   -5.5781    4.1582 H       1  UNL1        0.0269
      8 H          -3.4774   -5.4058    5.4176 H       1  UNL1        0.0269
      9 C          -2.8703   -3.1219    3.1911 C.3     1  UNL1        0.0058
     10 H          -3.0544   -5.1907    2.5907 H       1  UNL1        0.0269
     11 H          -1.8736   -4.9183    3.8583 H       1  UNL1        0.0269
     12 H          -3.1907   -2.9305    2.1635 H       1  UNL1        0.0342
     13 H          -1.8891   -2.6743    3.3707 H       1  UNL1        0.0342
     14 O          -4.1203   -1.3514    4.2215 O.2     1  UNL1       -0.2974
@<TRIPOS>BOND
     1     1     2    1
     2     2     3    1
     3     2     4    1
     4     2     5    1
     5     1     6    1
     6     1     7    1
     7     1     8    1
     8     6     9    1
     9     6    10    1
    10     6    11    1
    11     9     3    1
    12     9    12    1
    13     9    13    1
    14     3    14    2
