@<TRIPOS>MOLECULE
*****
 19 18 0 0 0
SMALL
GASTEIGER

@<TRIPOS>ATOM
      1 C          -5.6341    1.0871    0.5111 C.3     1  UNL11       0.0032
      2 C          -4.3377    1.5815   -0.1014 C.2     1  UNL11       0.1356
      3 C          -3.1983    0.6149   -0.4462 C.3     1  UNL11       0.0119
      4 C          -1.8487    1.2522   -0.0905 C.3     1  UNL11      -0.0560
      5 C          -3.2562   -0.7692    0.1911 C.3     1  UNL11      -0.0560
      6 H          -3.2496    0.4889   -1.5353 H       1  UNL11       0.0372
      7 H          -4.1947   -1.2853   -0.0069 H       1  UNL11       0.0236
      8 H          -3.1258   -0.7191    1.2770 H       1  UNL11       0.0236
      9 H          -2.4601   -1.4036   -0.2159 H       1  UNL11       0.0236
     10 H          -1.7931    2.3065   -0.3787 H       1  UNL11       0.0236
     11 H          -1.0317    0.7267   -0.5965 H       1  UNL11       0.0236
     12 H          -1.6624    1.2002    0.9889 H       1  UNL11       0.0236
     13 C          -6.4761    0.2282   -0.4136 C.3     1  UNL11      -0.0586
     14 H          -6.2196    1.9835    0.7572 H       1  UNL11       0.0339
     15 H          -5.4274    0.5871    1.4613 H       1  UNL11       0.0339
     16 H          -6.4301    0.5741   -1.4503 H       1  UNL11       0.0234
     17 H          -7.5220    0.2426   -0.0887 H       1  UNL11       0.0234
     18 H          -6.1611   -0.8174   -0.3941 H       1  UNL11       0.0234
     19 O          -4.2269    2.7864   -0.3647 O.2     1  UNL11      -0.2971
@<TRIPOS>BOND
     1     1     2    1
     2     2     3    1
     3     3     4    1
     4     3     5    1
     5     3     6    1
     6     5     7    1
     7     5     8    1
     8     5     9    1
     9     4    10    1
    10     4    11    1
    11     4    12    1
    12     1    13    1
    13     1    14    1
    14     1    15    1
    15    13    16    1
    16    13    17    1
    17    13    18    1
    18     2    19    2
