@<TRIPOS>MOLECULE
*****
 16 16 0 0 0
SMALL
GASTEIGER

@<TRIPOS>ATOM
      1 C          -5.7910    1.2719    0.1670 C.2     1  UNL11      -0.1833
      2 C          -4.3715    1.6975    0.1502 C.2     1  UNL11      -0.1192
      3 C          -3.3320    0.6305    0.0503 C.2     1  UNL11      -0.1715
      4 C          -1.9051    1.0786    0.0237 C.3     1  UNL11      -0.0678
      5 C          -3.7084   -0.6583   -0.0261 C.2     1  UNL11      -0.1069
      6 H          -1.7728    1.9388   -0.6407 H       1  UNL11       0.0252
      7 H          -1.2407    0.2868   -0.3385 H       1  UNL11       0.0252
      8 H          -1.5788    1.3623    1.0294 H       1  UNL11       0.0252
      9 C          -6.1257   -0.0231    0.0966 C.2     1  UNL11      -0.1097
     10 O          -4.0834    2.8873    0.2160 O.2     1  UNL11      -0.5027
     11 H          -6.5284    2.0620    0.2391 H       1  UNL1        0.0265
     12 C          -5.1294   -1.1353   -0.0063 C.3     1  UNL1       -0.0206
     13 H          -2.9488   -1.4329   -0.1011 H       1  UNL1        0.0552
     14 H          -5.2648   -1.8148    0.8427 H       1  UNL1        0.0348
     15 H          -5.3254   -1.7058   -0.9210 H       1  UNL1        0.0348
     16 H          -7.1761   -0.3007    0.1135 H       1  UNL1        0.0549
@<TRIPOS>BOND
     1     1     2    1
     2     2     3    1
     3     3     4    1
     4     3     5    2
     5     4     6    1
     6     4     7    1
     7     4     8    1
     8     1     9    2
     9     2    10    2
    10     1    11    1
    11     5    12    1
    12     5    13    1
    13    12     9    1
    14    12    14    1
    15    12    15    1
    16     9    16    1
