@<TRIPOS>MOLECULE
*****
 19 19 0 0 0
SMALL
GASTEIGER

@<TRIPOS>ATOM
      1 C          -5.2861   -5.8561    2.3349 C.3     1  UNL1       -0.0518
      2 C          -6.3460   -4.8446    2.8180 C.3     1  UNL1       -0.0435
      3 C          -5.4472   -3.7256    2.2329 C.3     1  UNL1        0.0178
      4 H          -6.4641   -4.8109    3.9069 H       1  UNL1        0.0272
      5 H          -7.3315   -4.9490    2.3558 H       1  UNL1        0.0272
      6 C          -4.2602   -4.7124    2.4151 C.3     1  UNL1       -0.0435
      7 H          -3.7545   -4.6424    3.3853 H       1  UNL1        0.0272
      8 H          -3.5076   -4.6934    1.6225 H       1  UNL1        0.0272
      9 H          -5.4538   -6.2215    1.3152 H       1  UNL1        0.0266
     10 H          -5.1003   -6.7071    2.9942 H       1  UNL1        0.0266
     11 C          -5.3489   -2.3737    2.9894 C.2     1  UNL1        0.1399
     12 H          -5.6544   -3.5704    1.1625 H       1  UNL1        0.0377
     13 C          -5.9627   -1.2171    2.3042 C.3     1  UNL1        0.0242
     14 C          -5.2765    0.0967    2.3854 C.3     1  UNL1       -0.0550
     15 H          -6.7589   -1.3912    1.5946 H       1  UNL1        0.0381
     16 H          -4.2028   -0.0204    2.2051 H       1  UNL1        0.0237
     17 H          -5.4262    0.5634    3.3621 H       1  UNL1        0.0237
     18 H          -5.6684    0.7692    1.6164 H       1  UNL1        0.0237
     19 O          -4.7726   -2.1891    4.0604 O.2     1  UNL1       -0.2968
@<TRIPOS>BOND
     1     1     2    1
     2     2     3    1
     3     2     4    1
     4     2     5    1
     5     3     6    1
     6     6     1    1
     7     6     7    1
     8     6     8    1
     9     1     9    1
    10     1    10    1
    11     3    11    1
    12     3    12    1
    13    11    13    1
    14    13    14    1
    15    13    15    1
    16    14    16    1
    17    14    17    1
    18    14    18    1
    19    11    19    2
