@<TRIPOS>MOLECULE
*****
 21 20 0 0 0
SMALL
GASTEIGER

@<TRIPOS>ATOM
      1 O          -9.5118    0.7284   -0.2570 O.3     1  UNL1       -0.3744
      2 C          -9.5362    1.9529    0.4725 C.3     1  UNL1        0.0455
      3 C          -8.4558    2.8636   -0.0782 C.3     1  UNL1       -0.0415
      4 H          -9.3732    1.8126    1.5419 H       1  UNL1        0.0557
      5 H         -10.5210    2.4136    0.3328 H       1  UNL1        0.0557
      6 H          -8.3657    3.7680    0.5314 H       1  UNL1        0.0252
      7 H          -8.6800    3.1554   -1.1077 H       1  UNL1        0.0252
      8 H          -7.4888    2.3489   -0.0918 H       1  UNL1        0.0252
      9 C          -9.6375   -0.4806    0.5065 C.3     1  UNL1        0.0612
     10 C         -10.8773   -0.4695    1.4097 C.3     1  UNL1       -0.0363
     11 H         -10.7712    0.2377    2.2389 H       1  UNL1        0.0257
     12 H         -11.0621   -1.4570    1.8459 H       1  UNL1        0.0257
     13 H         -11.7664   -0.1651    0.8462 H       1  UNL1        0.0257
     14 C          -9.7933   -1.6075   -0.5257 C.3     1  UNL1       -0.0363
     15 H         -10.7020   -1.4664   -1.1221 H       1  UNL1        0.0257
     16 H          -9.8448   -2.5912   -0.0465 H       1  UNL1        0.0257
     17 H          -8.9559   -1.6105   -1.2328 H       1  UNL1        0.0257
     18 C          -8.3566   -0.7316    1.3132 C.3     1  UNL1       -0.0363
     19 H          -8.1532    0.0762    2.0231 H       1  UNL1        0.0257
     20 H          -7.4859   -0.7827    0.6491 H       1  UNL1        0.0257
     21 H          -8.4159   -1.6673    1.8786 H       1  UNL1        0.0257
@<TRIPOS>BOND
     1     1     2    1
     2     2     3    1
     3     2     4    1
     4     2     5    1
     5     3     6    1
     6     3     7    1
     7     3     8    1
     8     1     9    1
     9     9    10    1
    10    10    11    1
    11    10    12    1
    12    10    13    1
    13     9    14    1
    14    14    15    1
    15    14    16    1
    16    14    17    1
    17     9    18    1
    18    18    19    1
    19    18    20    1
    20    18    21    1
