@<TRIPOS>MOLECULE
*****
 13 13 0 0 0
SMALL
GASTEIGER

@<TRIPOS>ATOM
      1 O          -7.2026   -4.6344    2.6340 O.3     1  UNL1       -0.3798
      2 C          -6.8166   -3.5023    3.4341 C.3     1  UNL1        0.0585
      3 C          -5.8246   -2.5541    2.8236 C.3     1  UNL1       -0.0243
      4 C          -7.2733   -2.1718    2.9069 C.3     1  UNL1       -0.0243
      5 H          -5.4199   -2.7938    1.8476 H       1  UNL1        0.0291
      6 H          -5.1277   -2.0577    3.4881 H       1  UNL1        0.0291
      7 H          -7.8507   -2.1611    1.9897 H       1  UNL1        0.0291
      8 H          -7.5623   -1.4150    3.6258 H       1  UNL1        0.0291
      9 H          -6.8123   -3.6238    4.5134 H       1  UNL1        0.0596
     10 C          -6.2640   -5.7017    2.6747 C.3     1  UNL1        0.0368
     11 H          -6.8091   -6.6398    2.8083 H       1  UNL1        0.0524
     12 H          -5.5460   -5.5911    3.4940 H       1  UNL1        0.0524
     13 H          -5.7267   -5.7362    1.7231 H       1  UNL1        0.0524
@<TRIPOS>BOND
     1     1     2    1
     2     2     3    1
     3     3     4    1
     4     3     5    1
     5     3     6    1
     6     4     2    1
     7     4     7    1
     8     4     8    1
     9     2     9    1
    10     1    10    1
    11    10    11    1
    12    10    12    1
    13    10    13    1
