@<TRIPOS>MOLECULE
*****
 29 31 0 0 0
SMALL
GASTEIGER

@<TRIPOS>ATOM
      1 C          -7.6566    2.8627    2.6114 C.ar    1  UNL1       -0.0583
      2 C          -7.7373    1.5252    2.9991 C.ar    1  UNL1       -0.0193
      3 C          -6.4339    3.5304    2.6709 C.ar    1  UNL1       -0.0615
      4 C          -5.2974    2.8669    3.1363 C.ar    1  UNL1       -0.0583
      5 C          -5.3826    1.5345    3.5470 C.ar    1  UNL1       -0.0193
      6 C          -6.5962    0.8544    3.4437 C.ar    1  UNL1        0.1284
      7 H          -8.5491    3.3863    2.2788 H       1  UNL1        0.0619
      8 H          -8.6942    1.0106    2.9778 H       1  UNL1        0.0654
      9 H          -6.3710    4.5739    2.3723 H       1  UNL1        0.0618
     10 H          -4.3495    3.3953    3.1987 H       1  UNL1        0.0619
     11 H          -4.5066    1.0398    3.9559 H       1  UNL1        0.0654
     12 O          -6.7783   -0.4134    3.9320 O.3     1  UNL1       -0.4560
     13 C          -6.1545   -1.4954    3.3531 C.ar    1  UNL1        0.1290
     14 C          -6.6648   -2.7306    3.7733 C.ar    1  UNL1       -0.0116
     15 C          -6.1174   -3.9425    3.3235 C.ar    1  UNL1       -0.0144
     16 C          -5.0141   -3.9142    2.4446 C.ar    1  UNL1       -0.0177
     17 C          -4.5191   -2.6725    2.0125 C.ar    1  UNL1       -0.0506
     18 C          -5.0950   -1.4720    2.4500 C.ar    1  UNL1       -0.0187
     19 H          -3.6750   -2.6296    1.3273 H       1  UNL1        0.0625
     20 H          -4.6806   -0.5433    2.0745 H       1  UNL1        0.0654
     21 H          -7.5043   -2.7393    4.4656 H       1  UNL1        0.0660
     22 C          -6.6404   -5.1794    3.7350 C.ar    1  UNL1       -0.0539
     23 C          -6.0694   -6.3755    3.2987 C.ar    1  UNL1       -0.0612
     24 C          -4.9663   -6.3494    2.4507 C.ar    1  UNL1       -0.0612
     25 C          -4.4425   -5.1272    2.0238 C.ar    1  UNL1       -0.0540
     26 H          -7.5001   -5.2184    4.4003 H       1  UNL1        0.0624
     27 H          -6.4848   -7.3255    3.6247 H       1  UNL1        0.0618
     28 H          -4.5144   -7.2804    2.1184 H       1  UNL1        0.0618
     29 H          -3.5817   -5.1284    1.3591 H       1  UNL1        0.0624
@<TRIPOS>BOND
     1     1     2   ar
     2     1     3   ar
     3     3     4   ar
     4     4     5   ar
     5     5     6   ar
     6     6     2   ar
     7     1     7    1
     8     2     8    1
     9     3     9    1
    10     4    10    1
    11     5    11    1
    12     6    12    1
    13    12    13    1
    14    13    14   ar
    15    14    15   ar
    16    15    16   ar
    17    16    17   ar
    18    17    18   ar
    19    18    13   ar
    20    17    19    1
    21    18    20    1
    22    14    21    1
    23    15    22   ar
    24    22    23   ar
    25    23    24   ar
    26    24    25   ar
    27    25    16   ar
    28    22    26    1
    29    23    27    1
    30    24    28    1
    31    25    29    1
