@<TRIPOS>MOLECULE
*****
 28 28 0 0 0
SMALL
GASTEIGER

@<TRIPOS>ATOM
      1 C          -7.8015    3.7575    3.2877 C.ar    1  UNL1       -0.0583
      2 C          -8.0434    2.4269    3.6354 C.ar    1  UNL1       -0.0199
      3 C          -6.5633    4.1264    2.7565 C.ar    1  UNL1       -0.0615
      4 C          -5.5619    3.1706    2.5912 C.ar    1  UNL1       -0.0583
      5 C          -5.7991    1.8428    2.9471 C.ar    1  UNL1       -0.0199
      6 C          -7.0500    1.4711    3.4384 C.ar    1  UNL1        0.1209
      7 H          -8.5734    4.5078    3.4340 H       1  UNL1        0.0619
      8 H          -9.0020    2.1418    4.0589 H       1  UNL1        0.0654
      9 H          -6.3761    5.1619    2.4827 H       1  UNL1        0.0618
     10 H          -4.5931    3.4593    2.1910 H       1  UNL1        0.0619
     11 H          -5.0122    1.1039    2.8397 H       1  UNL1        0.0654
     12 O          -7.2814    0.1674    3.7918 O.3     1  UNL1       -0.4888
     13 C          -7.7764   -0.6029    2.6775 C.3     1  UNL1        0.0997
     14 C          -8.8297   -1.6266    3.1795 C.3     1  UNL1       -0.0098
     15 C          -6.6001   -1.2966    1.9849 C.3     1  UNL1       -0.0276
     16 H          -8.2811    0.0463    1.9467 H       1  UNL1        0.0732
     17 H          -6.9410   -2.0637    1.2835 H       1  UNL1        0.0265
     18 H          -5.9207   -1.7501    2.7153 H       1  UNL1        0.0265
     19 H          -6.0052   -0.5738    1.4180 H       1  UNL1        0.0265
     20 C          -8.2355   -2.7490    4.0362 C.3     1  UNL1       -0.0593
     21 H          -7.6912   -2.3533    4.8992 H       1  UNL1        0.0233
     22 H          -7.5489   -3.3706    3.4525 H       1  UNL1        0.0233
     23 H          -9.0254   -3.4116    4.4072 H       1  UNL1        0.0233
     24 C          -9.9515   -0.9356    3.9606 C.3     1  UNL1       -0.0593
     25 H          -9.2820   -2.0954    2.2952 H       1  UNL1        0.0331
     26 H         -10.7586   -1.6433    4.1802 H       1  UNL1        0.0233
     27 H         -10.3814   -0.1111    3.3831 H       1  UNL1        0.0233
     28 H          -9.5917   -0.5366    4.9150 H       1  UNL1        0.0233
@<TRIPOS>BOND
     1     1     2   ar
     2     1     3   ar
     3     3     4   ar
     4     4     5   ar
     5     5     6   ar
     6     6     2   ar
     7     1     7    1
     8     2     8    1
     9     3     9    1
    10     4    10    1
    11     5    11    1
    12     6    12    1
    13    12    13    1
    14    13    14    1
    15    13    15    1
    16    13    16    1
    17    15    17    1
    18    15    18    1
    19    15    19    1
    20    14    20    1
    21    20    21    1
    22    20    22    1
    23    20    23    1
    24    14    24    1
    25    14    25    1
    26    24    26    1
    27    24    27    1
    28    24    28    1
