@<TRIPOS>MOLECULE
*****
 27 26 0 0 0
SMALL
GASTEIGER

@<TRIPOS>ATOM
      1 O          -7.0189   -0.8528    3.7599 O.3     1  UNL1       -0.3800
      2 C          -5.9105   -1.7642    3.8977 C.3     1  UNL1        0.0558
      3 C          -6.5321   -3.1578    3.6685 C.3     1  UNL1       -0.0243
      4 C          -5.6754   -4.4250    3.9079 C.3     1  UNL1       -0.0418
      5 H          -6.9614   -3.1942    2.6583 H       1  UNL1        0.0293
      6 H          -7.4044   -3.2129    4.3378 H       1  UNL1        0.0293
      7 C          -6.6516   -5.6266    4.0344 C.3     1  UNL1       -0.0532
      8 C          -5.9994   -7.0003    4.1041 C.3     1  UNL1       -0.0650
      9 H          -7.3530   -5.6230    3.1911 H       1  UNL1        0.0265
     10 H          -7.2551   -5.4906    4.9417 H       1  UNL1        0.0265
     11 H          -5.5555   -7.2783    3.1424 H       1  UNL1        0.0230
     12 H          -6.7529   -7.7597    4.3383 H       1  UNL1        0.0230
     13 H          -5.2249   -7.0370    4.8747 H       1  UNL1        0.0230
     14 C          -4.6524   -4.6777    2.7980 C.3     1  UNL1       -0.0623
     15 H          -5.1402   -4.3188    4.8589 H       1  UNL1        0.0299
     16 H          -3.9135   -3.8819    2.7246 H       1  UNL1        0.0232
     17 H          -5.1401   -4.7835    1.8246 H       1  UNL1        0.0232
     18 H          -4.0731   -5.5863    2.9914 H       1  UNL1        0.0232
     19 C          -4.7961   -1.4092    2.9185 C.3     1  UNL1       -0.0387
     20 H          -5.5400   -1.6988    4.9273 H       1  UNL1        0.0593
     21 H          -4.5638   -0.3405    2.9234 H       1  UNL1        0.0254
     22 H          -5.0784   -1.6645    1.8922 H       1  UNL1        0.0254
     23 H          -3.8665   -1.9194    3.1778 H       1  UNL1        0.0254
     24 C          -6.7224    0.5062    4.0449 C.3     1  UNL1        0.0368
     25 H          -7.6546    1.0092    4.3173 H       1  UNL1        0.0524
     26 H          -6.3321    0.9951    3.1475 H       1  UNL1        0.0524
     27 H          -6.0147    0.6054    4.8727 H       1  UNL1        0.0524
@<TRIPOS>BOND
     1     1     2    1
     2     2     3    1
     3     3     4    1
     4     3     5    1
     5     3     6    1
     6     4     7    1
     7     7     8    1
     8     7     9    1
     9     7    10    1
    10     8    11    1
    11     8    12    1
    12     8    13    1
    13     4    14    1
    14     4    15    1
    15    14    16    1
    16    14    17    1
    17    14    18    1
    18     2    19    1
    19     2    20    1
    20    19    21    1
    21    19    22    1
    22    19    23    1
    23     1    24    1
    24    24    25    1
    25    24    26    1
    26    24    27    1
