@<TRIPOS>MOLECULE
*****
 14 13 0 0 0
SMALL
GASTEIGER

@<TRIPOS>ATOM
      1 C          -1.6227    1.0611   -0.4663 C.3     1  UNL1       -0.0315
      2 C          -0.4162    0.5723    0.3247 C.3     1  UNL1        0.1033
      3 H          -1.5644    2.1423   -0.6311 H       1  UNL1        0.0260
      4 H          -2.5479    0.8773    0.0902 H       1  UNL1        0.0260
      5 H          -1.6966    0.5648   -1.4394 H       1  UNL1        0.0260
      6 C           0.8869    0.9346   -0.3758 C.3     1  UNL1       -0.0315
      7 H           1.7478    0.6244    0.2261 H       1  UNL1        0.0260
      8 H           0.9671    2.0194   -0.5043 H       1  UNL1        0.0260
      9 H           0.9619    0.4613   -1.3603 H       1  UNL1        0.0260
     10 C          -0.5007   -0.9253    0.5904 C.3     1  UNL1       -0.0315
     11 H          -1.4322   -1.1739    1.1100 H       1  UNL1        0.0260
     12 H           0.3190   -1.2478    1.2412 H       1  UNL1        0.0260
     13 H          -0.4565   -1.5036   -0.3383 H       1  UNL1        0.0260
     14 F          -0.4281    1.2090    1.5328 F       1  UNL1       -0.2428
@<TRIPOS>BOND
     1     1     2    1
     2     1     3    1
     3     1     4    1
     4     1     5    1
     5     2     6    1
     6     6     7    1
     7     6     8    1
     8     6     9    1
     9     2    10    1
    10    10    11    1
    11    10    12    1
    12    10    13    1
    13     2    14    1
