@<TRIPOS>MOLECULE
*****
 14 13 0 0 0
SMALL
GASTEIGER

@<TRIPOS>ATOM
      1 C          -5.6960    0.8724    0.0799 C.3     1  UNL1       -0.0475
      2 C          -4.2971    1.4575    0.2695 C.3     1  UNL1        0.0471
      3 H          -5.8310   -0.0479    0.6560 H       1  UNL1        0.0244
      4 H          -5.8929    0.6435   -0.9732 H       1  UNL1        0.0244
      5 H          -6.4640    1.5757    0.4215 H       1  UNL1        0.0244
      6 C          -3.1746    0.5382   -0.2548 C.3     1  UNL1        0.0471
      7 C          -1.7755    1.1306   -0.0932 C.3     1  UNL1       -0.0475
      8 H          -1.6432    2.0237   -0.7114 H       1  UNL1        0.0244
      9 H          -1.0072    0.4140   -0.4055 H       1  UNL1        0.0244
     10 H          -1.5766    1.4069    0.9479 H       1  UNL1        0.0244
     11 CL         -4.2605    3.0507   -0.5676 Cl      1  UNL1       -0.1206
     12 H          -4.1402    1.6723    1.3324 H       1  UNL1        0.0477
     13 CL         -3.1967   -1.0410    0.6103 Cl      1  UNL1       -0.1206
     14 H          -3.3435    0.3045   -1.3117 H       1  UNL1        0.0477
@<TRIPOS>BOND
     1     1     2    1
     2     1     3    1
     3     1     4    1
     4     1     5    1
     5     2     6    1
     6     6     7    1
     7     7     8    1
     8     7     9    1
     9     7    10    1
    10     2    11    1
    11     2    12    1
    12     6    13    1
    13     6    14    1
