@<TRIPOS>MOLECULE
*****
 15 15 0 0 0
SMALL
GASTEIGER

@<TRIPOS>ATOM
      1 C           5.0044    2.8265   -1.3016 C.3     1  UNL1       -0.0403
      2 C           3.9990    1.7015   -1.0390 C.3     1  UNL1        0.0229
      3 C           2.6520    2.4280   -1.1165 C.3     1  UNL1        0.0229
      4 C           2.8436    3.3676   -2.3105 C.3     1  UNL1       -0.0403
      5 C           4.3156    3.7713   -2.2831 C.3     1  UNL1       -0.0511
      6 H           2.1837    4.2401   -2.2526 H       1  UNL1        0.0276
      7 H           2.6323    2.8674   -3.2639 H       1  UNL1        0.0276
      8 H           4.4339    4.8114   -1.9603 H       1  UNL1        0.0266
      9 H           4.7537    3.6889   -3.2838 H       1  UNL1        0.0266
     10 H           5.9488    2.4437   -1.7034 H       1  UNL1        0.0276
     11 H           5.2458    3.3822   -0.3868 H       1  UNL1        0.0276
     12 I           4.3595    0.7874    0.8508 I       1  UNL1       -0.0806
     13 H           4.0858    0.9506   -1.8350 H       1  UNL1        0.0419
     14 H           2.4773    3.0273   -0.2135 H       1  UNL1        0.0419
     15 I           1.0025    1.1192   -1.4379 I       1  UNL1       -0.0806
@<TRIPOS>BOND
     1     1     2    1
     2     2     3    1
     3     3     4    1
     4     4     5    1
     5     4     6    1
     6     4     7    1
     7     5     1    1
     8     5     8    1
     9     5     9    1
    10     1    10    1
    11     1    11    1
    12     2    12    1
    13     2    13    1
    14     3    14    1
    15     3    15    1
