@<TRIPOS>MOLECULE
*****
 17 16 0 0 0
SMALL
GASTEIGER

@<TRIPOS>ATOM
      1 C          -4.6684    3.5131   -1.1572 C.3     1  UNL1       -0.0525
      2 C          -3.6041    2.4661   -0.8518 C.3     1  UNL1        0.0144
      3 H          -4.2882    4.2619   -1.8593 H       1  UNL1        0.0240
      4 H          -5.0087    4.0319   -0.2543 H       1  UNL1        0.0240
      5 H          -5.5508    3.0493   -1.6131 H       1  UNL1        0.0240
      6 C          -2.2618    3.0637   -0.3817 C.3     1  UNL1       -0.0345
      7 C          -1.1927    1.9935   -0.1306 C.3     1  UNL1       -0.0617
      8 H          -1.3922    1.4169    0.7772 H       1  UNL1        0.0233
      9 H          -0.2085    2.4600   -0.0097 H       1  UNL1        0.0233
     10 H          -1.1265    1.2987   -0.9748 H       1  UNL1        0.0233
     11 C          -2.3702    3.9949    0.8298 C.3     1  UNL1       -0.0617
     12 H          -1.8885    3.6779   -1.2125 H       1  UNL1        0.0306
     13 H          -1.3808    4.3678    1.1176 H       1  UNL1        0.0233
     14 H          -2.8000    3.4913    1.6995 H       1  UNL1        0.0233
     15 H          -2.9868    4.8702    0.6002 H       1  UNL1        0.0233
     16 BR         -4.3592    1.2054    0.4482 Br      1  UNL1       -0.0881
     17 H          -3.4342    1.8617   -1.7505 H       1  UNL1        0.0418
@<TRIPOS>BOND
     1     1     2    1
     2     1     3    1
     3     1     4    1
     4     1     5    1
     5     2     6    1
     6     6     7    1
     7     7     8    1
     8     7     9    1
     9     7    10    1
    10     6    11    1
    11     6    12    1
    12    11    13    1
    13    11    14    1
    14    11    15    1
    15     2    16    1
    16     2    17    1
