@<TRIPOS>MOLECULE
*****
 20 19 0 0 0
SMALL
GASTEIGER

@<TRIPOS>ATOM
      1 C          -1.8935    0.7154   -0.0667 C.3     1  UNL1       -0.0488
      2 C          -0.5669    1.4548    0.0598 C.3     1  UNL1        0.0312
      3 H          -2.7392    1.3994    0.0634 H       1  UNL1        0.0244
      4 H          -1.9768   -0.0619    0.7004 H       1  UNL1        0.0244
      5 H          -1.9936    0.2332   -1.0454 H       1  UNL1        0.0244
      6 C           0.6207    0.4947   -0.1030 C.3     1  UNL1       -0.0359
      7 C           1.9811    1.1608    0.1662 C.3     1  UNL1       -0.0385
      8 H           0.6190    0.0654   -1.1132 H       1  UNL1        0.0279
      9 H           0.4800   -0.3419    0.5908 H       1  UNL1        0.0279
     10 C           3.1651    0.1921    0.0289 C.3     1  UNL1        0.0245
     11 H           1.9747    1.6213    1.1623 H       1  UNL1        0.0277
     12 H           2.1195    1.9745   -0.5552 H       1  UNL1        0.0277
     13 C           4.4882    0.9483    0.0023 C.3     1  UNL1        0.0158
     14 BR          5.9369   -0.1849   -0.6575 Br      1  UNL1       -0.0906
     15 H           4.7981    1.3186    0.9840 H       1  UNL1        0.0393
     16 H           4.4575    1.7861   -0.7008 H       1  UNL1        0.0393
     17 BR          3.1629   -1.0374    1.5702 Br      1  UNL1       -0.0872
     18 H           3.0437   -0.4413   -0.8565 H       1  UNL1        0.0426
     19 CL         -0.5118    2.7563   -1.1673 Cl      1  UNL1       -0.1220
     20 H          -0.5199    1.9421    1.0396 H       1  UNL1        0.0463
@<TRIPOS>BOND
     1     1     2    1
     2     1     3    1
     3     1     4    1
     4     1     5    1
     5     2     6    1
     6     6     7    1
     7     6     8    1
     8     6     9    1
     9     7    10    1
    10     7    11    1
    11     7    12    1
    12    10    13    1
    13    13    14    1
    14    13    15    1
    15    13    16    1
    16    10    17    1
    17    10    18    1
    18     2    19    1
    19     2    20    1
